MIT License

Copyright (c) 2025 SimulationSystem_OPENFAST Contributors

Permission is hereby granted, free of charge, to any person obtaining a copy
of this software and associated documentation files (the "Software"), to deal
in the Software without restriction, including without limitation the rights
to use, copy, modify, merge, publish, distribute, sublicense, and/or sell
copies of the Software, and to permit persons to whom the Software is
furnished to do so, subject to the following conditions:

The above copyright notice and this permission notice shall be included in all
copies or substantial portions of the Software.

THE SOFTWARE IS PROVIDED "AS IS", WITHOUT WARRANTY OF ANY KIND, EXPRESS OR
IMPLIED, INCLUDING BUT NOT LIMITED TO THE WARRANTIES OF MERCHANTABILITY,
FITNESS FOR A PARTICULAR PURPOSE AND NONINFRINGEMENT. IN NO EVENT SHALL THE
AUTHORS OR COPYRIGHT HOLDERS BE LIABLE FOR ANY CLAIM, DAMAGES OR OTHER
LIABILITY, WHETHER IN AN ACTION OF CONTRACT, TORT OR OTHERWISE, ARISING FROM,
OUT OF OR IN CONNECTION WITH THE SOFTWARE OR THE USE OR OTHER DEALINGS IN THE
SOFTWARE.

---

## 免责声明

本项目是基于开源项目 [OpenFAST](https://github.com/OpenFAST/OpenFAST) 进行的二次开发，**仅供学习交流使用**。

本系统仅为 OpenFAST 的图形化批量处理前端，不包含 OpenFAST 核心计算引擎。使用本系统需要单独安装 OpenFAST。

感谢 OpenFAST 原作者团队为我们提供如此便捷的风电仿真计算方式。

- OpenFAST 官方仓库: https://github.com/OpenFAST/OpenFAST
- OpenFAST 官方文档: https://openfast.readthedocs.io/
